 deep_scheme        = 'off',
 shallow_scheme     = 'CLUBB_SGS',
 l_tracer_aero      = .false.
 l_rayleigh         = .false.
 l_gw_drag          = .false.
 l_ac_energy_chk    = .true.
 l_bc_energy_fix    = .true.
 l_dry_adj          = .false.
 l_st_mac           = .true.
 l_st_mic           = .false.
 l_rad              = .false.
