fsurdat = '$DIN_LOC_ROOT/lnd/clm2/surfdata_map/MOF21_surfdata.Daymet_NA.1km.1d.c240524.nc'
!fatmlndfrc = '$DIN_LOC_ROOT/share/domains/domain.clm/MOF21_domain.lnd.Daymet_NA.1km.1d.c240524.nc'
