use_fates_managed_fire = .true.
fates_spitfire_mode = 1
fates_history_dimlevel(1) = 2
fates_history_dimlevel(2) = 2
hist_fincl1       = 'FATES_NCOHORTS', 'FATES_TRIMMING', 'FATES_AREA_PLANTS',
'FATES_AREA_TREES', 'FATES_COLD_STATUS', 'FATES_GDD',
'FATES_NCHILLDAYS', 'FATES_NCOLDDAYS', 'FATES_DAYSINCE_COLDLEAFOFF','FATES_DAYSINCE_COLDLEAFON',
'FATES_CANOPY_SPREAD', 'FATES_NESTEROV_INDEX', 'FATES_IGNITIONS', 'FATES_FDI',
'FATES_ROS','FATES_EFFECT_WSPEED', 'FATES_FUELCONSUMED', 'FATES_FIRE_INTENSITY',
'FATES_FIRE_INTENSITY_BURNFRAC', 'FATES_BURNFRAC', 'FATES_FUEL_MEF',
'FATES_FUEL_BULKD', 'FATES_FUEL_EFF_MOIST', 'FATES_FUEL_SAV',
'FATES_FUEL_AMOUNT', 'FATES_LITTER_IN', 'FATES_LITTER_OUT',
'FATES_SEED_BANK', 'FATES_SEEDS_IN', 'FATES_STOREC', 'FATES_VEGC',
'FATES_SAPWOODC', 'FATES_LEAFC', 'FATES_FROOTC', 'FATES_REPROC',
'FATES_STRUCTC', 'FATES_NONSTRUCTC', 'FATES_VEGC_ABOVEGROUND',
'FATES_CANOPY_VEGC', 'FATES_USTORY_VEGC', 'FATES_PRIMARY_PATCHFUSION_ERR',
'FATES_HARVEST_WOODPROD_C_FLUX', 'FATES_DISTURBANCE_RATE_FIRE',
'FATES_DISTURBANCE_RATE_LOGGING', 'FATES_DISTURBANCE_RATE_TREEFALL',
'FATES_STOMATAL_COND', 'FATES_LBLAYER_COND', 'FATES_NPP', 'FATES_GPP',
'FATES_AUTORESP', 'FATES_GROWTH_RESP', 'FATES_MAINT_RESP', 'FATES_GPP_CANOPY',
'FATES_AUTORESP_CANOPY', 'FATES_GPP_USTORY', 'FATES_AUTORESP_USTORY',
'FATES_DEMOTION_CARBONFLUX', 'FATES_PROMOTION_CARBONFLUX',
'FATES_MORTALITY_CFLUX_CANOPY', 'FATES_MORTALITY_CFLUX_USTORY',
'FATES_NEP', 'FATES_HET_RESP', 'FATES_FIRE_CLOSS', 'FATES_FIRE_FLUX_EL',
'FATES_CBALANCE_ERROR', 'FATES_LEAF_ALLOC',
'FATES_SEED_ALLOC', 'FATES_STEM_ALLOC', 'FATES_FROOT_ALLOC',
'FATES_CROOT_ALLOC', 'FATES_STORE_ALLOC',
'FATES_WILDFIRE_INTENSITY','FATES_WILDFIRE_INTENSITY_BURNFRAC','FATES_RXFIRE_INTENSITY',
'FATES_RXFIRE_INTENSITY_BURNFRAC','FATES_WILDFIRE_BURNFRAC','FATES_RXFIRE_BURNFRAC',
'FATES_RXFIRE_BURNABLE_FUEL','FATES_RXFIRE_BURNABLE_FI','FATES_RXFIRE_BURNABLE_FINAL',
'FATES_WILDFIRE_BURNFRAC_AP','FATES_WILDFIRE_INTENSITY_BURNFRAC_AP',
'FATES_RXFIRE_BURNFRAC_AP','FATES_RXFIRE_INTENSITY_BURNFRAC_AP','FATES_MORTALITY_WILDFIRE_SZPF',
'FATES_MORTALITY_WILDFIRE_CROWN_SZPF','FATES_MORTALITY_WILDFIRE_CAMBIAL_SZPF',
'FATES_MORTALITY_RXFIRE_SZPF','FATES_MORTALITY_RXCROWN_SZPF','FATES_MORTALITY_RXCAMBIAL_SZPF',
'FATES_MORTALITY_RXFIRE_SZ'