ciso_atm_d14c_opt = 'file'
ciso_atm_d13c_opt = 'file'
ciso_atm_data_year = 1960
