finidat             = '$DIN_LOC_ROOT/lnd/clm2/initdata_map/clmi.I1850GSWCNPECACNTBC.f19_g16.0201-01-01-00000.nc'
NFIX_PTASE_plant = .true.

