fates_paramfile = '$CASEROOT/fates_params_twostream.nc'
