&clm_inparm
 albice = 0.60,0.40
 co2_ppmv = 284.7
 co2_type = 'constant'
 create_crop_landunit = .false.
 dtime = 1800
 fatmlndfrc = '/lustre/or-hydra/cades-ccsi/proj-shared/project_acme/ACME_inputdata/share/domains/domain.clm/domain.lnd.1x1pt_US-Brw_navy.nc'
 finidat = ' '
 fsnowaging = '/lustre/or-hydra/cades-ccsi/proj-shared/project_acme/ACME_inputdata/lnd/clm2/snicardata/snicar_drdt_bst_fit_60_c070416.nc'
 fsnowoptics = '/lustre/or-hydra/cades-ccsi/proj-shared/project_acme/ACME_inputdata/lnd/clm2/snicardata/snicar_optics_5bnd_mam_c160322.nc'
 fsoilordercon = '/lustre/or-hydra/cades-ccsi/proj-shared/project_acme/ACME_inputdata/lnd/clm2/paramdata/CNP_parameters_c131108.nc'
 fsurdat = '/lustre/or-hydra/cades-ccsi/proj-shared/project_acme/ACME_inputdata/lnd/clm2/surfdata_map/surfdata_1x1pt_US-Brw_simyr1850.nc'
 glc_do_dynglacier = .false.
 maxpatch_glcmec = 0
 maxpatch_pft = 17
 more_vertlayers = .false.
 nsegspc = 20
 paramfile = '/lustre/or-hydra/cades-ccsi/proj-shared/project_acme/ACME_inputdata/lnd/clm2/paramdata/clm_params_c160822.nc'
 spinup_state = 0
 urban_hac = 'ON'
 urban_traffic = .false.
 use_century_decomp = .false.
 use_cn = .true.
 use_crop = .false.
 use_dynroot = .false.
 use_ed = .false.
 use_lch4 = .false.
 use_nitrif_denitrif = .false.
 use_vertsoilc = .true.
/
&ndepdyn_nml
 ndepmapalgo = 'bilinear'
 stream_fldfilename_ndep = '/lustre/or-hydra/cades-ccsi/proj-shared/project_acme/ACME_inputdata/lnd/clm2/ndepdata/fndep_clm_hist_simyr1849-2006_1.9x2.5_c100428.nc'
 stream_year_first_ndep = 1850
 stream_year_last_ndep = 1850
/
&pdepdyn_nml
 pdepmapalgo = 'bilinear'
 stream_fldfilename_pdep = '/lustre/or-hydra/cades-ccsi/proj-shared/project_acme/ACME_inputdata/lnd/clm2/pdepdata/fpdep_clm_hist_simyr2000_1.9x2.5_c150929.nc'
 stream_year_first_pdep = 2000
 stream_year_last_pdep = 2000
/
&popd_streams
 popdensmapalgo = 'bilinear'
 stream_fldfilename_popdens = '/lustre/or-hydra/cades-ccsi/proj-shared/project_acme/ACME_inputdata/lnd/clm2/firedata/clmforc.Li_2012_hdm_0.5x0.5_AVHRR_simyr1850-2010_c130401.nc'
 stream_year_first_popdens = 1850
 stream_year_last_popdens = 1850
/
&light_streams
 lightngmapalgo = 'bilinear'
 stream_fldfilename_lightng = '/lustre/or-hydra/cades-ccsi/proj-shared/project_acme/ACME_inputdata/atm/datm7/NASA_LIS/clmforc.Li_2012_climo1995-2011.T62.lnfm_Total_c140423.nc'
 stream_year_first_lightng = 0001
 stream_year_last_lightng = 0001
/
&lai_streams
/
&clm_canopyhydrology_inparm
/
&clm_soilhydrology_inparm
/
&dynamic_subgrid
/
&finidat_consistency_checks
/
&dynpft_consistency_checks
/
&clmu_inparm
/
&clm_soilstate_inparm
/
&clm_pflotran_inparm
 pflotran_inputdir = '/lustre/or-hydra/cades-ccsi/proj-shared/models/pflotran-interface/example_problems/reaction_sandbox_simple'
/
&betr_inparm
/
&clm_humanindex_inparm
/
!#--------------------------------------------------------------------------------------------------------------------------
!# lnd_in:: Comment:
!# This namelist was created using the following command-line:
!#     /lustre/or-hydra/cades-ccsi/proj-shared/models/ACME-fmyuan/components/clm/bld/CLM build-namelist -infile /lustre/or-hydra/cades-ccsi/omearata/E3SM/cime/scripts/PFtest/Buildconf/clmconf/namelist -csmdata /lustre/or-hydra/cades-ccsi/proj-shared/project_acme/ACME_inputdata -inputdata /lustre/or-hydra/cades-ccsi/omearata/E3SM/cime/scripts/PFtest/Buildconf/clm.input_data_list -ignore_ic_year -namelist  &clm_inparm  start_ymd=00010101
!#   / -use_case 1850_control -res 1x1pt_US-Brw -clm_usr_name 1x1pt_US-Brw -clm_start_type default -envxml_dir /lustre/or-hydra/cades-ccsi/omearata/E3SM/cime/scripts/PFtest -l_ncpl 48 -lnd_frac /lustre/or-hydra/cades-ccsi/proj-shared/project_acme/ACME_inputdata/share/domains/domain.clm/domain.lnd.1x1pt_US-Brw_navy.nc -glc_nec 0 -co2_ppmv 284.7 -co2_type constant -config /lustre/or-hydra/cades-ccsi/omearata/E3SM/cime/scripts/PFtest/Buildconf/clmconf/config_cache.xml -bgc cn
!# For help on options use: /lustre/or-hydra/cades-ccsi/proj-shared/models/ACME-fmyuan/components/clm/bld/CLM build-namelist -help
!#--------------------------------------------------------------------------------------------------------------------------
