dust_flux_source = 'driver'
iron_flux_source = 'driver-derived'
