 anoxia          = .true.
 use_vertsoilc   = .false.
 hist_wrtch4diag = .true.
