hist_empty_htapes = .true.
use_fates_cohort_age_tracking=.true.
hist_fincl1       = 'FATES_NPLANT_ACPF', 'FATES_MORTALITY_SENESCENCE_SZPF',
'FATES_MORTALITY_AGESCEN_SZPF', 'FATES_MORTALITY_AGESCEN_ACPF', 'FATES_NPLANT_AC',
'FATES_MORTALITY_SENESCENCE_SZ', 'FATES_MORTALITY_AGESCEN_SZ', 'FATES_MORTALITY_AGESCEN_AC'
