hist_fincl1       = 'FATES_AREA_PLANTS', 'FATES_AREA_TREES', 'FATES_VEGC_PF',
'FATES_LEAFC_PF', 'FATES_NESTEROV_INDEX', 'FATES_ROS', 'FATES_FUELCONSUMED',
'FATES_FIRE_INTENSITY', 'FATES_BURNFRAC', 'FATES_FUEL_MEF', 'FATES_FUEL_BULKD',
'FATES_FUEL_SAV', 'FATES_LITTER_IN', 'FATES_LITTER_OUT', 'FATES_NPP',
'FATES_GPP', 'FATES_SCORCH_HEIGHT_APPF', 'FATES_NEP'
