semi_lagrange_cdr_check = .true.
se_ftype = 0
