flanduse_timeseries = '/global/home/users/jitang/jitang/clm_input/inputdata/lnd/clm2/surfdata_map/surfdata.pftdyn_0.9x1.25_US-brw_hist_simyr1850-2005_glcmec10_c141127.nc'
fsurdat = '/global/home/users/jitang/jitang/clm_input/inputdata/lnd/clm2/surfdata_map/surfdata_0.9x1.25_f19_US-brw_simyr1850_c141127.nc'
