flanduse_timeseries = '/global/u1/j/jinyun/ACME/models/lnd/clm/tools/shared/ncl_scripts/~/clm_input/inputdata/lnd/clm2/surfdata_map/surfdata.pftdyn_0.9x1.25_US-Ha1_hist_simyr1850-2005_glcmec10_c141127.nc'
fsurdat = '/global/u1/j/jinyun/ACME/models/lnd/clm/tools/shared/ncl_scripts/~/clm_input/inputdata/lnd/clm2/surfdata_map/surfdata_0.9x1.25_f19_US-Ha1_simyr1850_c141127.nc'
