
 check_finidat_year_consistency = .false.
