use_firn_percolation_and_compaction = .true.
