! verify that crm-level outputs can be written and they don't break restarts

! file i/o
nhtfrq = 0,-6
mfilt = 1,120

! CRM-fields on subset of globe
fincl2 = 'CRM_T:A','CRM_QRAD:I'
fincl2lonlat = '100w:90w_30n:40n'
