finidat = ''
hist_mfilt             = 365
hist_nhtfrq            = -24

hist_empty_htapes = .true.

hist_fincl1='NPP','GPP','BTRAN','TOTVEGC','H2OSOI','TLAI','LITTER_IN','LITTER_OUT',
'STORVEGC','FIRE_AREA','SCORCH_HEIGHT','FIRE_INTENSITY','FIRE_TFC_ROS','fire_fuel_mef',
'LITTERC','fire_fuel_bulkd','fire_fuel_sav','FIRE_NESTEROV_INDEX','PFTbiomass',
'PFTleafbiomass','FIRE_ROS','WIND','TFC_ROS','DISPVEGC','AREA_TREES','AREA_PLANT' 
