
theta_hydrostatic_mode=.true.
tstep_type=5
cubed_sphere_map=2

transport_alg=12
semi_lagrange_cdr_alg=20
rsplit=1
se_ftype=4
se_limiter_option=9
qsplit=4
nu_q=0
semi_lagrange_nearest_point_lev = 100

se_nsplit = 2
vert_remap_q_alg=1
se_tstep=-1
dt_remap_factor=-1
dt_tracer_factor=-1
hypervis_subcycle=3
hypervis_subcycle_q=1
