nlevsno = 12
h2osno_max = 20000.

! Add some multi-layer snow history fields
hist_fincl1 += 'SNO_EXISTENCE', 'SNO_ABS', 'SNO_T:M', 'SNO_GS:X'

! Use cold start, because can't change number of snow layers for existing initial conditions file
finidat = ' '
