fsurdat = '$DIN_LOC_ROOT/clm2/surfdata_map/surfdata_1x1_brazil_simyr1850_c140610.nc'
