fsurdat = '$DIN_LOC_ROOT/lnd/clm2/surfdata_map/surfdata_global_coastline_merit_90m_calibrated_c221109.nc'
flndtopo = '$DIN_LOC_ROOT/lnd/clm2/surfdata_map/surfdata_global_coastline_merit_90m_calibrated_c221109.nc'