fsurdat = '/compyfs/xudo627/lnd-docn-1way/inputdata/surfdata_global_coastline_merit_90m_calibrated_c221109.nc'
flndtopo = '/compyfs/xudo627/lnd-docn-1way/inputdata/surfdata_global_coastline_merit_90m_fd2.5_c221109.nc'