! fsurdat used is not the same file for the reference historical run (as recorded in elm.r's global attribute)

 CHECK_FINIDAT_FSURDAT_CONSISTENCY       = .false.

 hist_dov2xy = .true.,.true.
 hist_fincl2 = 'H2OSNO', 'FSNO', 'QRUNOFF', 'QSNOMELT', 'FSNO_EFF', 'SNORDSL', 'SNOW', 'FSDS', 'FSR', 'FLDS', 'FIRE', 'FIRA'
 hist_mfilt = 1,365
 hist_nhtfrq = -24,-24
 hist_avgflag_pertape = 'A','A'

