 glcmec_downscale_rain_snow_convert = .true.
 glcmec_downscale_longwave = .false.
