seasalt_emis_scale =  0.6  
cldfrc_dp1         = 0.018D0
clubb_c1           = 2.4
clubb_c11          = 0.70
clubb_c11b         = 0.20
clubb_c11c         = 0.85
clubb_c14          = 2.0D0
clubb_c1b          = 2.8
clubb_c1c          = 0.75

clubb_c6rtb        = 7.50
clubb_c6rtc        = 0.50
clubb_c6thlb       = 7.50
clubb_c6thlc       = 0.50
clubb_c8           = 5.2    
clubb_c_k10        = 0.35    
clubb_gamma_coef   = 0.12D0   
clubb_gamma_coefb  = 0.28D0   
clubb_gamma_coefc  = 1.2
clubb_mu           = 0.0005
clubb_wpxp_l_thresh = 100.0D0


clubb_ice_deep     = 14.e-6 
clubb_use_sgv      = .true. 
dust_emis_fact     = 2.8D0 

ice_sed_ai         =    1200.0  
micro_mg_berg_eff_factor = 0.7D0
so4_sz_thresh_icenuc     = 0.080e-6
cld_sed                  = 1.8D0 
micro_mg_accre_enhan_fac = 1.75D0
prc_exp1                 = -1.40D0
zmconv_alfa              = 0.14D0 
zmconv_c0_lnd            = 0.0020  
zmconv_c0_ocn            = 0.0020  
zmconv_dmpdz             = -1.2e-3
zmconv_ke                = 5.0E-6 
zmconv_mx_bot_lyr_adj    = 1

zmconv_tp_fac            = 2.0D0  

ext_frc_specifier	   = 'SO2         -> $DIN_LOC_ROOT/atm/cam/chem/trop_mozart_aero/emis/DECK_ne30/cmip6_mam4_so2_elev_1850-2014_c180205.nc',
         'SOAG        -> $DIN_LOC_ROOT/atm/cam/chem/trop_mozart_aero/emis/DECK_ne30/cmip6_mam4_soag_elev_1850-2014_c180205.nc',
         'bc_a4       -> $DIN_LOC_ROOT/atm/cam/chem/trop_mozart_aero/emis/DECK_ne30/cmip6_mam4_bc_a4_elev_1850-2014_c180205.nc',
         'num_a1      -> $DIN_LOC_ROOT/atm/cam/chem/trop_mozart_aero/emis/DECK_ne30/cmip6_mam4_num_a1_elev_1850-2014_c180205.nc',
         'num_a2      -> $DIN_LOC_ROOT/atm/cam/chem/trop_mozart_aero/emis/DECK_ne30/cmip6_mam4_num_a2_elev_1850-2014_c180205.nc',
         'num_a4      -> $DIN_LOC_ROOT/atm/cam/chem/trop_mozart_aero/emis/DECK_ne30/cmip6_mam4_num_a4_elev_1850-2014_c180205.nc',
         'pom_a4      -> $DIN_LOC_ROOT/atm/cam/chem/trop_mozart_aero/emis/DECK_ne30/cmip6_mam4_pom_a4_elev_1850-2014_c180205.nc',
         'so4_a1      -> $DIN_LOC_ROOT/atm/cam/chem/trop_mozart_aero/emis/DECK_ne30/cmip6_mam4_so4_a1_elev_1850-2014_c180205.nc',
         'so4_a2      -> $DIN_LOC_ROOT/atm/cam/chem/trop_mozart_aero/emis/DECK_ne30/cmip6_mam4_so4_a2_elev_1850-2014_c180205.nc'


srf_emis_specifier   	 = 'DMS       -> $DIN_LOC_ROOT/atm/cam/chem/trop_mozart_aero/emis/DMSflux.2000.1deg_latlon_conserv.POPmonthlyClimFromACES4BGC_c20160226.nc',
         'SO2       -> $DIN_LOC_ROOT/atm/cam/chem/trop_mozart_aero/emis/DECK_ne30/cmip6_mam4_so2_surf_1850-2014_c180205.nc',
         'bc_a4     -> $DIN_LOC_ROOT/atm/cam/chem/trop_mozart_aero/emis/DECK_ne30/cmip6_mam4_bc_a4_surf_1850-2014_c180205.nc',
         'num_a1    -> $DIN_LOC_ROOT/atm/cam/chem/trop_mozart_aero/emis/DECK_ne30/cmip6_mam4_num_a1_surf_1850-2014_c180205.nc',
         'num_a2    -> $DIN_LOC_ROOT/atm/cam/chem/trop_mozart_aero/emis/DECK_ne30/cmip6_mam4_num_a2_surf_1850-2014_c180205.nc',
         'num_a4    -> $DIN_LOC_ROOT/atm/cam/chem/trop_mozart_aero/emis/DECK_ne30/cmip6_mam4_num_a4_surf_1850-2014_c180205.nc',
         'pom_a4    -> $DIN_LOC_ROOT/atm/cam/chem/trop_mozart_aero/emis/DECK_ne30/cmip6_mam4_pom_a4_surf_1850-2014_c180205.nc',
         'so4_a1    -> $DIN_LOC_ROOT/atm/cam/chem/trop_mozart_aero/emis/DECK_ne30/cmip6_mam4_so4_a1_surf_1850-2014_c180205.nc',
         'so4_a2    -> $DIN_LOC_ROOT/atm/cam/chem/trop_mozart_aero/emis/DECK_ne30/cmip6_mam4_so4_a2_surf_1850-2014_c180205.nc'
