! user_nl_clm namelist options written by PTCLMmkdata:
! ../PTCLMmkdata --verbose --soilgrid --cesm_root ../../../../../../.. -s BR-Sa1 -d /glade/p/cesmdata/cseg/inputdata --debug --mydatadir testing_dir/soigrid_file_creation 
 fsurdat = '/glade/p/work/erik/clm_transCO2/models/lnd/clm/tools/shared/PTCLM/test/testing_dir/soigrid_file_creation/1x1pt_BR-Sa1/surfdata_1x1pt_BR-Sa1_simyr2000_clm4_5_soigrd_c140204.nc'
 hist_nhtfrq = 0
 hist_mfilt  = 1200
