finidat = '$DIN_LOC_ROOT/lnd/clm2/initdata_map/clmi.f09_g16.ICNPRDCTCBC.elm.r.0001-12-28-00000.nc'

