finidat = '$DIN_LOC_ROOT/lnd/clm2/initdata_map/clmi.r05_r05.ICNPRDCTCBC.elm.r.0001-12-28-00000.nc'

