finidat             = '$DIN_LOC_ROOT/lnd/clm2/initdata_map/clmi.I1850GSWCNPRDCTCBC.f19_g16.67a0f98.0401-01-01-00000.nc'

