use_clm_interface = .true.
use_clm_bgc = .true.
