 suplnitro      = 'ALL'
 wrtdia         = .true.
 hist_dov2xy    = .true.,.false.
 hist_ndens     = 1,1
 hist_fincl1    = 'TRAFFICFLUX', 'SNOWLIQ:A','SNOWICE:A'
 hist_nhtfrq    =-24,-8
 hist_mfilt     = 1,3
