ice_ic = 'b.e15.B1850G.f09_g16.pi_control.25.cice.r.0041-01-01-00000.nc'
