init_interp_fill_missing_with_natveg = .true.
