finidat             = '$DIN_LOC_ROOT/lnd/clm2/initdata_map/clmi.I20TRGSWCNPRDCTCBC.f19_g16.0401-01-01-00000.nc'

