cosp_lite = .true.
nhtfrq    = 5
mfilt     = 1