semi_lagrange_cdr_check = .true.
statefreq = 144
