hist_nhtfrq = 9
hist_mfilt = 1
hist_ndens = 1
