 wrtdia         = .true.
 hist_ndens     = 1
! user_nl_clm namelist options written by PTCLM:
! ./PTCLM.py -m yellowstone_intel -s US-UMB -d /glade/p/cesmdata/cseg/inputdata --cesm_root /glade/p/work/erik/clm_clean_trunk/ 
 fsurdat = '$DIN_LOC_ROOT/lnd/clm2/PTCLMmydatafiles.c140317/1x1pt_US-UMB/surfdata_1x1pt_US-UMB_simyr2000_clm4_5_c140121.nc'
 hist_nhtfrq = 0
 hist_mfilt  = 1200

