! user_nl_clm namelist options written by PTCLMmkdata:
! ../PTCLMmkdata --verbose --phys clm4_0 --cesm_root ../../../../../../.. -s US-NR1 -d /glade/p/cesmdata/cseg/inputdata --debug --sdate 140204 --map_gdate 140204 --mydatadir testing_dir/stdclm40_file_creation 
 fsurdat = '/glade/p/work/erik/clm_trunk/models/lnd/clm/tools/shared/PTCLM/test/testing_dir/stdclm40_file_creation/1x1pt_US-NR1/surfdata_1x1pt_US-NR1_simyr2000_clm4_0_c140204.nc'
 hist_nhtfrq = 0
 hist_mfilt  = 1200
