 hist_dov2xy    = .true.
 hist_ndens     = 1
 hist_nhtfrq    =-24
 hist_mfilt     = 1
