&camexp
 ndens=1
 nhtfrq=-24 
 mfilt=1
 /
