finidat = '$DIN_LOC_ROOT/lnd/clm2/initdata_map/clmi.IELM.f19_f19.ERS.c20230215.nc'
