&satellite_options_nl
 sathist_mfilt          = 10000,
 sathist_track_infile   = '$DIN_LOC_ROOT/atm/waccm/sat/sathist_master_19700410-20150419_c20150616.nc'
 sathist_hfilename_spec = '%c.sathist_master_19700410-20150419_c20150616.%y-%m-%d-%s.nc'
 sathist_nclosest       = 1
 sathist_ntimestep      = 1
 sathist_fincl          = 'T', 'PS'
