use_cn            = .false. 
finidat           = ''
hist_mfilt        = 365
hist_nhtfrq       = -24
hist_empty_htapes = .true.
fates_spitfire_mode = 1
hist_fincl1       = 'FATES_NCOHORTS', 'FATES_TRIMMING', 'FATES_AREA_PLANTS',
'FATES_AREA_TREES', 'FATES_COLD_STATUS', 'FATES_DROUGHT_STATUS', 'FATES_GDD',
'FATES_NCHILLDAYS', 'FATES_NCOLDDAYS', 'FATES_DAYSINCE_COLDLEAFOFF',
'FATES_DAYSINCE_COLDLEAFON', 'FATES_DAYSINCE_DROUGHTLEAFOFF',
'FATES_DAYSINCE_DROUGHTLEAFON', 'FATES_MEANLIQVOL_DROUGHTPHEN',
'FATES_CANOPY_SPREAD', 'FATES_NESTEROV_INDEX', 'FATES_IGNITIONS', 'FATES_FDI',
'FATES_ROS','FATES_EFFECT_WSPEED', 'FATES_FUELCONSUMED', 'FATES_FIRE_INTENSITY',
'FATES_FIRE_INTENSITY_BURNFRAC', 'FATES_BURNFRAC', 'FATES_FUEL_MEF',
'FATES_FUEL_BULKD', 'FATES_FUEL_EFF_MOIST', 'FATES_FUEL_SAV',
'FATES_FUEL_AMOUNT', 'FATES_LITTER_IN', 'FATES_LITTER_OUT',
'FATES_SEED_BANK', 'FATES_SEEDS_IN', 'FATES_STOREC', 'FATES_VEGC',
'FATES_SAPWOODC', 'FATES_LEAFC', 'FATES_FROOTC', 'FATES_REPROC',
'FATES_STRUCTC', 'FATES_NONSTRUCTC', 'FATES_VEGC_ABOVEGROUND',
'FATES_CANOPY_VEGC', 'FATES_USTORY_VEGC', 'FATES_PRIMARY_PATCHFUSION_ERR',
'FATES_DISTURBANCE_RATE_P2P', 'FATES_DISTURBANCE_RATE_P2S',
'FATES_DISTURBANCE_RATE_S2S', 'FATES_DISTURBANCE_RATE_FIRE',
'FATES_DISTURBANCE_RATE_LOGGING', 'FATES_DISTURBANCE_RATE_TREEFALL',
'FATES_DISTURBANCE_RATE_POTENTIAL', 'FATES_HARVEST_CARBON_FLUX',
'FATES_STOMATAL_COND', 'FATES_LBLAYER_COND', 'FATES_NPP', 'FATES_GPP',
'FATES_AUTORESP', 'FATES_GROWTH_RESP', 'FATES_MAINT_RESP', 'FATES_GPP_CANOPY',
'FATES_AUTORESP_CANOPY', 'FATES_GPP_USTORY', 'FATES_AUTORESP_USTORY',
'FATES_DEMOTION_CARBONFLUX', 'FATES_PROMOTION_CARBONFLUX',
'FATES_MORTALITY_CFLUX_CANOPY', 'FATES_MORTALITY_CFLUX_USTORY',
'FATES_NEP', 'FATES_HET_RESP', 'FATES_FIRE_CLOSS', 'FATES_FIRE_FLUX_EL',
'FATES_CBALANCE_ERROR', 'FATES_ERROR_EL', 'FATES_LEAF_ALLOC',
'FATES_SEED_ALLOC', 'FATES_STEM_ALLOC', 'FATES_FROOT_ALLOC',
'FATES_CROOT_ALLOC', 'FATES_STORE_ALLOC'
