use_cn            = .false. 
hist_mfilt        = 365
hist_nhtfrq       = -24
hist_empty_htapes = .true.
fates_spitfire_mode = 1
hist_fincl1       = 
'FATES_AREA_PLANTS',
'FATES_AREA_TREES',
'FATES_AUTORESP_CANOPY',
'FATES_AUTORESP_USTORY',
'FATES_AUTORESP',
'FATES_BURNFRAC',
'FATES_CANOPY_SPREAD',
'FATES_CANOPY_VEGC',
'FATES_CBALANCE_ERROR',
'FATES_COLD_STATUS',
'FATES_CROOT_ALLOC',
'FATES_DAYSINCE_COLDLEAFOFF',
'FATES_DAYSINCE_COLDLEAFON',
'FATES_DEMOTION_CARBONFLUX',
'FATES_DISTURBANCE_RATE_FIRE',
'FATES_DISTURBANCE_RATE_LOGGING',
'FATES_DISTURBANCE_RATE_MATRIX_LULU',
'FATES_DISTURBANCE_RATE_TREEFALL',
'FATES_EFFECT_WSPEED',
'FATES_FDI',
'FATES_FIRE_CLOSS',
'FATES_FIRE_FLUX_EL',
'FATES_FIRE_INTENSITY_BURNFRAC',
'FATES_FIRE_INTENSITY',
'FATES_FROOT_ALLOC',
'FATES_FROOTC',
'FATES_FUEL_AMOUNT',
'FATES_FUEL_BULKD',
'FATES_FUEL_EFF_MOIST',
'FATES_FUEL_MEF',
'FATES_FUEL_SAV',
'FATES_FUELCONSUMED',
'FATES_GDD',
'FATES_GPP_CANOPY',
'FATES_GPP_USTORY',
'FATES_GPP',
'FATES_GROWTH_RESP',
'FATES_HARVEST_WOODPROD_C_FLUX',
'FATES_HET_RESP',
'FATES_IGNITIONS',
'FATES_LBLAYER_COND',
'FATES_LEAF_ALLOC',
'FATES_LEAFC',
'FATES_LITTER_IN',
'FATES_LITTER_OUT',
'FATES_MAINT_RESP',
'FATES_MORTALITY_CFLUX_CANOPY',
'FATES_MORTALITY_CFLUX_USTORY',
'FATES_NCHILLDAYS',
'FATES_NCOHORTS',
'FATES_NCOLDDAYS',
'FATES_NEP',
'FATES_NESTEROV_INDEX',
'FATES_NONSTRUCTC',
'FATES_NPP',
'FATES_PATCHAREA_LU',
'FATES_PRIMARY_PATCHFUSION_ERR',
'FATES_PROMOTION_CARBONFLUX',
'FATES_REPROC',
'FATES_ROS',
'FATES_SAPWOODC',
'FATES_SEED_ALLOC',
'FATES_SEED_BANK',
'FATES_SEEDS_IN',
'FATES_STEM_ALLOC',
'FATES_STOMATAL_COND',
'FATES_STORE_ALLOC',
'FATES_STOREC',
'FATES_STRUCTC',
'FATES_TRIMMING',
'FATES_USTORY_VEGC',
'FATES_VEGC_ABOVEGROUND',
'FATES_VEGC'
