! user_nl_clm namelist options written by PTCLMmkdata:
! ../PTCLMmkdata --pftgrid --soilgrid --verbose --donot_use_tower_yrs --clmnmlusecase=20thC_transient --cesm_root ../../../../../../.. -s US-UMB -d /glade/p/cesmdata/cseg/inputdata --debug --mydatadir testing_dir/global_surfdata_create 
 fsurdat = '/glade/p/work/erik/clm_transCO2/models/lnd/clm/tools/shared/PTCLM/test/testing_dir/global_surfdata_create/1x1pt_US-UMB/surfdata_1x1pt_US-UMB_simyr1850_clm4_5_pftgrd_soigrd_c140204.nc'
 fpftdyn = /glade/p/work/erik/clm_transCO2/models/lnd/clm/tools/shared/PTCLM/test/testing_dir/global_surfdata_create/1x1pt_US-UMB/surfdata.pftdyn1x1pt_US-UMB_hist_simyr1850-2005_clm4_5_pftgrd_soigrd_c140204.nc
 hist_nhtfrq = 0
 hist_mfilt  = 1200
