! user_nl_clm namelist options written by PTCLMmkdata:
! ../PTCLMmkdata --verbose --cesm_root ../../../../../../.. -s IT-Col -d /glade/p/cesmdata/cseg/inputdata --debug --sdate 140204 --map_gdate 140204 --mydatadir testing_dir/std_file_creation 
 fsurdat = '/glade/p/work/erik/clm_trunk/models/lnd/clm/tools/shared/PTCLM/test/testing_dir/std_file_creation/1x1pt_IT-Col/surfdata_1x1pt_IT-Col_simyr2000_clm4_5_c140204.nc'
 hist_nhtfrq = 0
 hist_mfilt  = 1200
