! user_nl_clm namelist options written by PTCLMmkdata:
! ../PTCLMmkdata --verbose --pftgrid --clmnmlusecase=1850-2100_rcp2.6_transient --cesm_root ../../../../../../.. -s US-Dk2 -d /glade/p/cesmdata/cseg/inputdata --debug --mydatadir testing_dir/rcp26grd_file_creation 
 fsurdat = '/glade/p/work/erik/clm_transCO2/models/lnd/clm/tools/shared/PTCLM/test/testing_dir/rcp26grd_file_creation/1x1pt_US-Dk2/surfdata_1x1pt_US-Dk2_simyr1850_clm4_5_pftgrd_c140204.nc'
 fpftdyn = /glade/p/work/erik/clm_transCO2/models/lnd/clm/tools/shared/PTCLM/test/testing_dir/rcp26grd_file_creation/1x1pt_US-Dk2/surfdata.pftdyn1x1pt_US-Dk2_rcp2.6_simyr1850-2100_clm4_5_pftgrd_c140204.nc
 hist_nhtfrq = 0
 hist_mfilt  = 1200
