!----------------------------------------------------------------------------------
! Users should add all user specific namelist changes below in the form of 
! namelist_var = new_namelist_value 
!
! Include namelist variables for drv_flds_in ONLY if -megan and/or -drydep options
! are set in the CLM_NAMELIST_OPTS env variable.
!
! EXCEPTIONS: 
! Set use_cndv           by the compset you use and the CLM_BLDNML_OPTS -dynamic_vegetation setting
! Set use_vichydro       by the compset you use and the CLM_BLDNML_OPTS -vichydro           setting
! Set use_cn             by the compset you use and CLM_BLDNML_OPTS -bgc  setting
! Set use_crop           by the compset you use and CLM_BLDNML_OPTS -crop setting
! Set spinup_state       by the CLM_BLDNML_OPTS -bgc_spinup      setting
! Set irrigate           by the CLM_BLDNML_OPTS -irrig           setting
! Set co2_ppmv           with CCSM_CO2_PPMV                      option
! Set dtime              with L_NCPL                             option
! Set fatmlndfrc         with LND_DOMAIN_PATH/LND_DOMAIN_FILE    options
! Set finidat            with RUN_REFCASE/RUN_REFDATE/RUN_REFTOD options for hybrid or branch cases
!                        (includes $inst_string for multi-ensemble cases)
! Set glc_grid           with CISM_GRID                          option
! Set glc_smb            with GLC_SMB                            option
! Set maxpatch_glcmec    with GLC_NEC                            option
! Set glc_do_dynglacier  with GLC_TWO_WAY_COUPLING               env variable
!----------------------------------------------------------------------------------

 check_finidat_year_consistency = .false.
 stream_fldfilename_ndep = '/compyfs/inputdata/lnd/clm2/ndepdata/fndep_elm_cbgc_exp_simyr1849-2101_1.9x2.5_c190103.nc' 
 hist_nhtfrq = 0,-24,0,0
 hist_mfilt = 1,365,1,1
 hist_dov2xy = .true., .true., .false., .false.
 hist_fincl1 = 'TOTPRODC','LEAFC_STORAGE','LEAFC_XFER','FROOTC_STORAGE','FROOTC_XFER','LIVESTEMC_STORAGE','LIVESTEMC_XFER',
               'DEADSTEMC_STORAGE','DEADSTEMC_XFER','LIVECROOTC_STORAGE','LIVECROOTC_XFER','DEADCROOTC_STORAGE','DEADCROOTC_XFER','GRESP_STORAGE','GRESP_XFER',
               'CPOOL_TO_LEAFC','CPOOL_TO_FROOTC','CPOOL_TO_LIVESTEMC','CPOOL_TO_DEADSTEMC','CPOOL_TO_LIVECROOTC','CPOOL_TO_DEADCROOTC',
               'LEAFC_XFER_TO_LEAFC','FROOTC_XFER_TO_FROOTC','LIVESTEMC_XFER_TO_LIVESTEMC','DEADSTEMC_XFER_TO_DEADSTEMC','LIVECROOTC_XFER_TO_LIVECROOTC','DEADCROOTC_XFER_TO_DEADCROOTC',
               'LEAF_MR','FROOT_MR','LIVESTEM_MR','LIVECROOT_MR',
               'CPOOL_LEAF_GR','CPOOL_LEAF_STORAGE_GR','TRANSFER_LEAF_GR','CPOOL_FROOT_GR','CPOOL_FROOT_STORAGE_GR','TRANSFER_FROOT_GR',
               'CPOOL_LIVESTEM_GR','CPOOL_LIVESTEM_STORAGE_GR','TRANSFER_LIVESTEM_GR','CPOOL_DEADSTEM_GR','CPOOL_DEADSTEM_STORAGE_GR','TRANSFER_DEADSTEM_GR',
               'CPOOL_LIVECROOT_GR','CPOOL_LIVECROOT_STORAGE_GR','TRANSFER_LIVECROOT_GR','CPOOL_DEADCROOT_GR','CPOOL_DEADCROOT_STORAGE_GR','TRANSFER_DEADCROOT_GR',
               'LITFALL','LEAFC_TO_LITTER','FROOTC_TO_LITTER','M_LEAFC_TO_LITTER','M_LEAFC_STORAGE_TO_LITTER',
               'M_LEAFC_XFER_TO_LITTER','M_FROOTC_TO_LITTER','M_FROOTC_STORAGE_TO_LITTER','M_FROOTC_XFER_TO_LITTER','M_LIVESTEMC_TO_LITTER',
               'M_LIVESTEMC_STORAGE_TO_LITTER','M_LIVESTEMC_XFER_TO_LITTER','M_DEADSTEMC_TO_LITTER','M_DEADSTEMC_STORAGE_TO_LITTER',
               'M_DEADSTEMC_XFER_TO_LITTER','M_LIVECROOTC_TO_LITTER','M_LIVECROOTC_STORAGE_TO_LITTER','M_LIVECROOTC_XFER_TO_LITTER',
               'M_DEADCROOTC_TO_LITTER','M_DEADCROOTC_STORAGE_TO_LITTER','M_DEADCROOTC_XFER_TO_LITTER',
               'M_LEAFC_TO_LITTER_FIRE','M_LEAFC_STORAGE_TO_LITTER_FIRE','M_LEAFC_XFER_TO_LITTER_FIRE','M_FROOTC_TO_LITTER_FIRE','M_FROOTC_STORAGE_TO_LITTER_FIRE',
               'M_FROOTC_XFER_TO_LITTER_FIRE','M_LIVESTEMC_TO_LITTER_FIRE','M_LIVESTEMC_STORAGE_TO_LITTER_FIRE','M_LIVESTEMC_XFER_TO_LITTER_FIRE',
               'M_DEADSTEMC_TO_LITTER_FIRE','M_DEADSTEMC_STORAGE_TO_LITTER_FIRE','M_DEADSTEMC_XFER_TO_LITTER_FIRE','M_LIVEROOTC_TO_LITTER_FIRE',
               'M_LIVEROOTC_XFER_TO_LITTER_FIRE','M_LIVECROOTC_STORAGE_TO_LITTER_FIRE','M_DEADROOTC_TO_LITTER_FIRE','M_DEADCROOTC_STORAGE_TO_LITTER_FIRE',
               'M_DEADROOTC_XFER_TO_LITTER_FIRE','M_GRESP_STORAGE_TO_LITTER','M_GRESP_XFER_TO_LITTER','M_GRESP_STORAGE_TO_LITTER_FIRE','M_GRESP_XFER_TO_LITTER_FIRE',
               'COL_FIRE_CLOSS','LITFIRE','SOMFIRE','VEGFIRE','M_CPOOL_TO_FIRE','DWT_CLOSS','PRODUCT_CLOSS',
               'DWT_PROD100C_GAIN','DWT_PROD10C_GAIN','PROD10C','PROD100C','VEGC_TO_CWDC','M_CPOOL_TO_LITTER','M_CPOOL_TO_LITTER_FIRE',

               'TOTPRODN','LEAFN_STORAGE','LEAFN_XFER','FROOTN_STORAGE','FROOTN_XFER','LIVESTEMN_STORAGE','LIVESTEMN_XFER',
               'DEADSTEMN_STORAGE','DEADSTEMN_XFER','LIVECROOTN_STORAGE','LIVECROOTN_XFER','DEADCROOTN_STORAGE','DEADCROOTN_XFER','NPOOL','RETRANSN',
               'NPOOL_TO_LEAFN','NPOOL_TO_FROOTN','NPOOL_TO_LIVESTEMN','NPOOL_TO_DEADSTEMN','NPOOL_TO_LIVECROOTN','NPOOL_TO_DEADCROOTN',
               'LEAFN_XFER_TO_LEAFN','FROOTN_XFER_TO_FROOTN','LIVESTEMN_XFER_TO_LIVESTEMN','DEADSTEMN_XFER_TO_DEADSTEMN','LIVECROOTN_XFER_TO_LIVECROOTN','DEADCROOTN_XFER_TO_DEADCROOTN',
               'GAP_NLOSS_LITTER','FIRE_NLOSS_LITTER','HRV_NLOSS_LITTER','SEN_NLOSS_LITTER','NFIX_TO_ECOSYSN',
               'PROD1N','PROD10N','PROD100N','PRODUCT_NLOSS','PROD1N_LOSS','PROD10N_LOSS','PROD100N_LOSS','VEGN_TO_CWDN','M_NPOOL_TO_LITTER','M_NPOOL_TO_LITTER_FIRE',

               'TOTPRODP','LEAFP_STORAGE','LEAFP_XFER','FROOTP_STORAGE','FROOTP_XFER','LIVESTEMP_STORAGE','LIVESTEMP_XFER',
               'DEADSTEMP_STORAGE','DEADSTEMP_XFER','LIVECROOTP_STORAGE','LIVECROOTP_XFER','DEADCROOTP_STORAGE','DEADCROOTP_XFER','PPOOL','RETRANSP',
               'PPOOL_TO_LEAFP','PPOOL_TO_FROOTP','PPOOL_TO_LIVESTEMP','PPOOL_TO_DEADSTEMP','PPOOL_TO_LIVECROOTP','PPOOL_TO_DEADCROOTP',
               'LEAFP_XFER_TO_LEAFP','FROOTP_XFER_TO_FROOTP','LIVESTEMP_XFER_TO_LIVESTEMP','DEADSTEMP_XFER_TO_DEADSTEMP','LIVECROOTP_XFER_TO_LIVECROOTP','DEADCROOTP_XFER_TO_DEADCROOTP',
               'GAP_PLOSS_LITTER','FIRE_PLOSS_LITTER','HRV_PLOSS_LITTER','SEN_PLOSS_LITTER','VEGP_TO_CWDP','M_PPOOL_TO_LITTER','M_PPOOL_TO_LITTER_FIRE',

               'FSRND','FSRNI','FSRVD','FSRVI'
 hist_fincl2 = 'QRUNOFF_R','TWS','SOILWATER_10CM','QSOIL', 'QVEGE', 'QVEGT','GPP','QRUNOFF'
 hist_fincl3 = 'GPP','NEE','NEP','NPP','TLAI','TOTVEGC','TOTVEGN','TOTVEGP','FROOTC','FROOTN','FROOTP','LIVECROOTC','LIVECROOTN','LIVECROOTP','DEADCROOTC','DEADCROOTN','DEADCROOTP',
               'LIVESTEMC','LIVESTEMN','LIVESTEMP','DEADSTEMC','DEADSTEMN','DEADSTEMP','TOTPFTC','TOTPFTN','TOTPFTP','PFT_FIRE_CLOSS','PFT_FIRE_NLOSS','PFT_FIRE_PLOSS','AR','HR','PCT_LANDUNIT','PCT_NAT_PFT'
 hist_fincl4 = 'TOTLITC','TOTLITN','TOTLITP','CWDC','CWDN','CWDP','DWT_CLOSS','DWT_NLOSS','DWT_PLOSS','HR','TOTCOLC','TOTCOLN','TOTCOLP','TOTECOSYSC','TOTECOSYSN','TOTECOSYSP','TOTSOMC','TOTSOMN','TOTSOMP'

