finidat            = ''
use_var_soil_thick = .true.
