use_elm_interface = .true.
use_elm_bgc = .true.
