fsurdat = '$DIN_LOC_ROOT/lnd/clm2/surfdata_map/surfdata_42_FLUXNETSITES_simyr1850_c170912.nc'
paramfile = '$DIN_LOC_ROOT/lnd/clm2/paramdata/clm_params_c211124.nc'