fglcmask = '/global/cfs/cdirs/e3sm/sprice/e3sm_cases/glcmaskdata_0.5x0.5_GIS_AIS-test.nc'
