!----------------------------------------------------------------------------------
! Users should add all user specific namelist changes below in the form of
! namelist_var = new_namelist_value
!
! Include namelist variables for drv_flds_in ONLY if -megan and/or -drydep options
! are set in the CLM_NAMELIST_OPTS env variable.
!
! EXCEPTIONS:
! Set use_cndv           by the compset you use and the CLM_BLDNML_OPTS -dynamic_vegetation setting
! Set use_vichydro       by the compset you use and the CLM_BLDNML_OPTS -vichydro           setting
! Set use_cn             by the compset you use and CLM_BLDNML_OPTS -bgc  setting
! Set use_crop           by the compset you use and CLM_BLDNML_OPTS -crop setting
! Set spinup_state       by the CLM_BLDNML_OPTS -bgc_spinup      setting
! Set irrigate           by the CLM_BLDNML_OPTS -irrig           setting
! Set co2_ppmv           with CCSM_CO2_PPMV                      option
! Set dtime              with L_NCPL                             option
! Set fatmlndfrc         with LND_DOMAIN_PATH/LND_DOMAIN_FILE    options
! Set finidat            with RUN_REFCASE/RUN_REFDATE/RUN_REFTOD options for hybrid or branch cases
!                        (includes $inst_string for multi-ensemble cases)
! Set glc_grid           with CISM_GRID                          option
! Set glc_smb            with GLC_SMB                            option
! Set maxpatch_glcmec    with GLC_NEC                            option
! Set glc_do_dynglacier  with GLC_TWO_WAY_COUPLING               env variable
!----------------------------------------------------------------------------------

 check_finidat_year_consistency = .false.
 hist_dov2xy = .true.,.true.      check_finidat_year_consistency = .false.
 hist_fincl2 = 'H2OSNO', 'FSNO', 'QRUNOFF', 'QSNOMELT', 'FSNO_EFF', 'SNORDSL', 'SNOW', 'FSDS', 'FSR', 'FLDS', 'FIRE'
 hist_mfilt = 1,365
 hist_nhtfrq = 0,-24
 hist_avgflag_pertape = 'A','A'
 check_finidat_year_consistency = .false.
 finidat = '${DIN_LOC_ROOT}/lnd/clm2/initdata_map/clmi.WCYCL1850.northamericax4v1pg2_WC14to60E2r3.SMS_PS.c20230213.nc'
