&ccsm_pes
  atm_layout = "concurrent"
  atm_ntasks = 1
  atm_nthreads = 1
  atm_pestride = 1
  atm_rootpe = 0
  cpl_ntasks = 1
  cpl_nthreads = 1
  cpl_pestride = 1
  cpl_rootpe = 0
  esp_layout = "concurrent"
  esp_ntasks = 1
  esp_nthreads = 1
  esp_pestride = 1
  esp_rootpe = 0
  glc_layout = "concurrent"
  glc_ntasks = 1
  glc_nthreads = 1
  glc_pestride = 1
  glc_rootpe = 0
  ice_layout = "concurrent"
  ice_ntasks = 1
  ice_nthreads = 1
  ice_pestride = 1
  ice_rootpe = 0
  lnd_layout = "concurrent"
  lnd_ntasks = 1
  lnd_nthreads = 1
  lnd_pestride = 1
  lnd_rootpe = 0
  ocn_layout = "concurrent"
  ocn_ntasks = 1
  ocn_nthreads = 1
  ocn_pestride = 1
  ocn_rootpe = 0
  rof_layout = "concurrent"
  rof_ntasks = 1
  rof_nthreads = 1
  rof_pestride = 1
  rof_rootpe = 0
  wav_layout = "concurrent"
  wav_ntasks = 1
  wav_nthreads = 1
  wav_pestride = 1
  wav_rootpe = 0
/
&cime_driver_inst
  ninst_driver = 1
/
&papi_inparm
  papi_ctr1_str = "PAPI_FP_OPS"
  papi_ctr2_str = "PAPI_NO_CTR"
  papi_ctr3_str = "PAPI_NO_CTR"
  papi_ctr4_str = "PAPI_NO_CTR"
/
&pio_default_inparm
  pio_async_interface = .false.
  pio_blocksize = -1
  pio_buffer_size_limit = -1
  pio_debug_level = 0
  pio_rearr_comm_enable_hs_comp2io = .true.
  pio_rearr_comm_enable_hs_io2comp = .false.
  pio_rearr_comm_enable_isend_comp2io = .false.
  pio_rearr_comm_enable_isend_io2comp = .true.
  pio_rearr_comm_fcd = "2denable"
  pio_rearr_comm_max_pend_req_comp2io = 0
  pio_rearr_comm_max_pend_req_io2comp = 64
  pio_rearr_comm_type = "p2p"
/
&prof_inparm
  profile_add_detail = .false.
  profile_barrier = .false.
  profile_depth_limit = 20
  profile_detail_limit = 12
  profile_disable = .false.
  profile_global_stats = .true.
  profile_outpe_num = 1
  profile_outpe_stride = 0
  profile_ovhd_measurement = .false.
  profile_papi_enable = .false.
  profile_single_file = .false.
  profile_timer = 4
/
&seq_cplflds_inparm
  flds_bgc_oi = .false.
  flds_co2_dmsa = .false.
  flds_co2a = .false.
  flds_co2b = .false.
  flds_co2c = .false.
  flds_wiso = .false.
  glc_nec = 0
  ice_ncat = 1
  nan_check_component_fields = .false.
  seq_flds_i2o_per_cat = .false.
/
&seq_cplflds_userspec
  cplflds_custom = ""
/
&seq_infodata_inparm
  aoflux_grid = "ocn"
  aqua_planet = .false.
  aqua_planet_sst = 1
  atm_gnam = "CLM_USRDAT"
  bfbflag = .true.
  brnch_retain_casename = .false.
  budget_ann = 1
  budget_daily = 0
  budget_inst = 0
  budget_ltann = 1
  budget_ltend = 0
  budget_month = 1
  case_desc = "UNSET"
  case_name = "PFtest"
  cime_model = "e3sm"
  coldair_outbreak_mod = .false.
  cpl_decomp = 0
  cpl_seq_option = "CESM1_MOD"
  do_budgets = .false.
  do_histinit = .false.
  drv_threading = .true.
  eps_aarea = 9e-07
  eps_agrid = 1e-12
  eps_amask = 1e-13
  eps_frac = 1.0e-02
  eps_oarea = 0.1
  eps_ogrid = 0.01
  eps_omask = 1e-06
  flux_albav = .false.
  flux_convergence = 0.0
  flux_diurnal = .false.
  flux_epbal = "off"
  flux_max_iteration = 2
  force_stop_at = "month"
  glc_gnam = "null"
  glc_renormalize_smb = "on_if_glc_coupled_fluxes"
  gust_fac = 0.0D0
  histaux_a2x = .false.
  histaux_a2x1hr = .false.
  histaux_a2x1hri = .false.
  histaux_a2x24hr = .false.
  histaux_a2x3hr = .false.
  histaux_a2x3hrp = .false.
  histaux_l2x = .false.
  histaux_l2x1yr = .false.
  histaux_r2x = .false.
  histavg_atm = .true.
  histavg_glc = .true.
  histavg_ice = .true.
  histavg_lnd = .true.
  histavg_ocn = .true.
  histavg_rof = .true.
  histavg_wav = .true.
  histavg_xao = .true.
  hostname = "cades"
  ice_gnam = "CLM_USRDAT"
  info_debug = 1
  lnd_gnam = "CLM_USRDAT"
  logfilepostfix = ".log"
  max_cplstep_time = 0.0
  mct_usealltoall = .false.
  mct_usevector = .false.
  ocn_gnam = "CLM_USRDAT"
  orb_eccen = 1.e36
  orb_iyear = 1990
  orb_iyear_align = 1990
  orb_mode = "fixed_year"
  orb_mvelp = 1.e36
  orb_obliq = 1.e36
  outpathroot = "./"
  reprosum_diffmax = -1.0e-8
  reprosum_recompute = .false.
  reprosum_use_ddpdd = .false.
  restart_file = "str_undefined"
  rof_gnam = "null"
  run_barriers = .false.
  scmlat = -999.
  scmlon = -999.
  shr_map_dopole = .true.
  single_column = .false.
  start_type = "startup"
  tchkpt_dir = "./timing/checkpoints"
  tfreeze_option = "minus1p8"
  timing_dir = "./timing"
  username = "omearata"
  vect_map = "cart3d"
  wall_time_limit = -1.0
  wav_gnam = "null"
  wv_sat_scheme = "GoffGratch"
  wv_sat_table_spacing = 1.0D0
  wv_sat_transition_start = 20.0D0
  wv_sat_use_tables = .false.
/
&seq_timemgr_inparm
  atm_cpl_dt = 1800
  atm_cpl_offset = 0
  barrier_n = 1
  barrier_option = "ndays"
  barrier_ymd = -999
  calendar = "NO_LEAP"
  data_assimilation_atm = .false.
  data_assimilation_cpl = .false.
  data_assimilation_glc = .false.
  data_assimilation_ice = .false.
  data_assimilation_lnd = .false.
  data_assimilation_ocn = .false.
  data_assimilation_rof = .false.
  data_assimilation_wav = .false.
  end_restart = .false.
  esp_cpl_offset = 0
  esp_run_on_pause = .true.
  glc_avg_period = "glc_coupling_period"
  glc_cpl_dt = 86400
  glc_cpl_offset = 0
  histavg_n = -999
  histavg_option = "never"
  histavg_ymd = -999
  history_n = -999
  history_option = "never"
  history_ymd = -999
  ice_cpl_dt = 1800
  ice_cpl_offset = 0
  lnd_cpl_dt = 1800
  lnd_cpl_offset = 0
  ocn_cpl_dt = 86400
  ocn_cpl_offset = 0
  pause_active_atm = .false.
  pause_active_cpl = .false.
  pause_active_glc = .false.
  pause_active_ice = .false.
  pause_active_lnd = .false.
  pause_active_ocn = .false.
  pause_active_rof = .false.
  pause_active_wav = .false.
  pause_n = 0
  pause_option = "never"
  restart_n = 5
  restart_option = "nyears"
  restart_ymd = -999
  rof_cpl_dt = 10800
  start_tod = 0
  start_ymd = 00010101
  stop_n = 5
  stop_option = "nyears"
  stop_ymd = -999
  tprof_n = 152
  tprof_option = "ndays"
  tprof_ymd = -999
  wav_cpl_dt = 1800
  wav_cpl_offset = 0
/
