rest_time_inv_surf = 2.3e-6
rest_time_inv_deep = 2.3e-6

restore_short_names = 'SiO3', 'NO3', 'PO4'
restore_filenames = 3*'$DIN_LOC_ROOT/ocn/pop/gx3v7/ic/ecosys_jan_IC_gx3v7_Nov2012_corrO2.nc'
restore_file_varnames = 'SiO3', 'NO3', 'PO4'
