 hist_nhtfrq    = 0,-240
 hist_mfilt     = 1,1
