 use_ozone    = .true.
 hist_fincl2 += 'O3UPTAKESUN', 'O3UPTAKESHA'
