&clm_inparm
 co2_ppmv = 278.0
 co2_type = 'constant'
 create_crop_landunit = .true.
 do_rtm = .true.
 dtime = 1800
 fatmlndfrc = '/fs/cgd/csm/inputdata/share/domains/domain.lnd.fv0.9x1.25_gx1v6.090309.nc'
 finidat =
'/fs/cgd/csm/inputdata/lnd/clm2/initdata/clmi.BCN.2000-01-01_0.9x1.25_gx1v6_simyr2000_c100303.nc'
 fmapinp_rtm =
'/fs/cgd/csm/inputdata/lnd/clm2/mappingdata/maps/0.9x1.25/map_0.9x1.25_nomask_to_0.5x0.5_nomask_aave_da_c120222.nc'
 fpftcon = '/fs/cgd/csm/inputdata/lnd/clm2/pftdata/pft-physiology.c110425.nc'
 frivinp_rtm =
'/fs/cgd/csm/inputdata/lnd/clm2/rtmdata/rdirc_0.5x0.5_simyr2000_c101124.nc'
 fsnowaging =
'/fs/cgd/csm/inputdata/lnd/clm2/snicardata/snicar_drdt_bst_fit_60_c070416.nc'
 fsnowoptics = '/fs/cgd/csm/inputdata/lnd/clm2/snicardata/snicar_optics_5bnd_c090915.nc'
 fsurdat =
'/fs/cgd/csm/inputdata/lnd/clm2/surfdata/surfdata_0.9x1.25_simyr2000_c110921.nc'
 ice_runoff = .true.
 maxpatch_glcmec = 10
 nsegspc = 20
 urban_hac = 'OFF'
 urban_traffic = .false.
/
&ndepdyn_nml
/
