finidat             = '$DIN_LOC_ROOT/lnd/clm2/initdata_map/20250122_CBGCv2.r05.chrysalis.I1850GSWCNPPHSWFMCROP.rgsp.elm.r.0616-01-01-00000.nc'

