!----------------------------------------------------------------------------------
! Users should add all user specific namelist changes below in the form of 
! namelist_var = new_namelist_value 
! NOTE: namelist variable coupling_period CAN ONLY be changed by modifying the value
!       of the xml variable ROF_NCPL in env_run.xml
! NOTE: if the xml variable ROF GRID in env_build.xml is set to 'null', then
!        the RTM build-namelist will set do_rtm to .false. - and will ignore 
!        any change below
!----------------------------------------------------------------------------------
 rtmhist_fincl2 = 'RIVER_DISCHARGE_OVER_LAND_LIQ'
 frivinp_rtm = '/lcrc/group/e3sm/data/inputdata/rof/mosart/MOSART_Global_half_20210422.nc'
 parafile = '/lcrc/group/e3sm/data/inputdata/rof/mosart/global_reservoir_halfdegree_c20200917.nc'

