! The settings needed for chemUCI-Linozv3 in v3atm's 4th full smoke test
! This is to ease testing with F20TR_chemUCI-Linozv3

 ncdata = '$DIN_LOC_ROOT/atm/cam/inic/homme/20220906.v2.LR.bi-grid.amip.chemUCI_Linozv3.eam.i.2000-01-01-00000.mapped_to_ne4np4.nc'
 tropopause_e90_thrd    = 80.0e-9
 history_gaschmbudget_2D = .false.
 history_gaschmbudget_2D_levels = .false.
 history_UCIgaschmbudget_2D = .false.
 history_UCIgaschmbudget_2D_levels = .false.
 gaschmbudget_2D_L1_s =  1
 gaschmbudget_2D_L1_e = 26
 gaschmbudget_2D_L2_s = 27
 gaschmbudget_2D_L2_e = 38
 gaschmbudget_2D_L3_s = 39
 gaschmbudget_2D_L3_e = 58
 gaschmbudget_2D_L4_s = 59
 gaschmbudget_2D_L4_e = 72
! history_aero_optics    = .true.
! history_aerosol        = .true.
! history_amwg           = .true.
! history_budget         = .true.
! history_verbose        = .true.
 cosp_lite = .true.

 linoz_psc_t = 198.0

 drydep_list = 'O3','H2O2','CH2O','CH3OOH','NO','NO2','HNO3','HO2NO2','PAN','CO','CH3COCH3','C2H5OOH','CH3CHO','H2SO4','SO2','NO3','N2O5'

 gas_wetdep_list                = 'C2H5OOH','CH2O','CH3CHO','CH3OOH','H2O2','H2SO4','HNO3','HO2NO2','SO2','SOAG0','SOAG15','SOAG24','SOAG35','SOAG34','SOAG33','SOAG32','SOAG31'
 gas_wetdep_method              = 'NEU'

 ext_frc_specifier              = 'NO2    -> $DIN_LOC_ROOT/atm/cam/chem/trop_mozart_aero/emis/chem_gases/2degrees/emissions-cmip6_NO2_aircraft_vertical_1750-2015_1.9x2.5_c20170608.nc',
         'SO2         -> $DIN_LOC_ROOT/atm/cam/chem/trop_mozart_aero/emis/DECK_ne30/cmip6_mam4_so2_elev_1850-2014_c180205.nc',
         'SOAG0  -> $DIN_LOC_ROOT/atm/cam/chem/trop_mozart_aero/emis/DECK_ne30/emissions-cmip6_e3sm_SOAG0_elev_1850-2014_1.9x2.5_c20230201.nc',
         'bc_a4  -> $DIN_LOC_ROOT/atm/cam/chem/trop_mozart_aero/emis/DECK_ne30/cmip6_mam4_bc_a4_elev_1850-2014_c180205.nc',
         'num_a1 -> $DIN_LOC_ROOT/atm/cam/chem/trop_mozart_aero/emis/DECK_ne30/cmip6_mam4_num_a1_elev_1850-2014_c180205.nc',
         'num_a2 -> $DIN_LOC_ROOT/atm/cam/chem/trop_mozart_aero/emis/DECK_ne30/cmip6_mam4_num_a2_elev_1850-2014_c180205.nc',
         'num_a4 -> $DIN_LOC_ROOT/atm/cam/chem/trop_mozart_aero/emis/DECK_ne30/cmip6_mam4_num_a4_elev_1850-2014_c180205.nc',
         'pom_a4 -> $DIN_LOC_ROOT/atm/cam/chem/trop_mozart_aero/emis/DECK_ne30/cmip6_mam4_pom_a4_elev_1850-2014_c180205.nc',
         'so4_a1 -> $DIN_LOC_ROOT/atm/cam/chem/trop_mozart_aero/emis/DECK_ne30/cmip6_mam4_so4_a1_elev_1850-2014_c180205.nc',
         'so4_a2 -> $DIN_LOC_ROOT/atm/cam/chem/trop_mozart_aero/emis/DECK_ne30/cmip6_mam4_so4_a2_elev_1850-2014_c180205.nc' 
 ext_frc_type           = 'INTERP_MISSING_MONTHS'
 srf_emis_specifier             = 'C2H4     -> $DIN_LOC_ROOT/atm/cam/chem/trop_mozart_aero/emis/chem_gases/2degrees/emissions-cmip6_e3sm_C2H4_surface_1850-2014_1.9x2.5_c20210323.nc', 
         'C2H6     -> $DIN_LOC_ROOT/atm/cam/chem/trop_mozart_aero/emis/chem_gases/2degrees/emissions-cmip6_e3sm_C2H6_surface_1850-2014_1.9x2.5_c20210323.nc', 
         'C3H8     -> $DIN_LOC_ROOT/atm/cam/chem/trop_mozart_aero/emis/chem_gases/2degrees/emissions-cmip6_e3sm_C3H8_surface_1850-2014_1.9x2.5_c20210323.nc',
         'CH2O     -> $DIN_LOC_ROOT/atm/cam/chem/trop_mozart_aero/emis/chem_gases/2degrees/emissions-cmip6_e3sm_CH2O_surface_1850-2014_1.9x2.5_c20210323.nc',
         'CH3CHO   -> $DIN_LOC_ROOT/atm/cam/chem/trop_mozart_aero/emis/chem_gases/2degrees/emissions-cmip6_e3sm_CH3CHO_surface_1850-2014_1.9x2.5_c20210323.nc',
         'CH3COCH3 -> $DIN_LOC_ROOT/atm/cam/chem/trop_mozart_aero/emis/chem_gases/2degrees/emissions-cmip6_e3sm_CH3COCH3_surface_1850-2014_1.9x2.5_c20210323.nc',
         'CO       -> $DIN_LOC_ROOT/atm/cam/chem/trop_mozart_aero/emis/chem_gases/2degrees/emissions-cmip6_e3sm_CO_surface_1850-2014_1.9x2.5_c20210323.nc',       
         'ISOP     -> $DIN_LOC_ROOT/atm/cam/chem/trop_mozart_aero/emis/chem_gases/2degrees/emissions-cmip6_e3sm_ISOP_surface_1850-2014_1.9x2.5_c20210323.nc',
         'C10H16   -> $DIN_LOC_ROOT/atm/cam/chem/trop_mozart_aero/emis/chem_gases/2degrees/emissions-cmip6_e3sm_MTERP_surface_1850-2014_1.9x2.5_c20230126.nc',         
         'SOAG0    -> $DIN_LOC_ROOT/atm/cam/chem/trop_mozart_aero/emis/DECK_ne30/emissions-cmip6_e3sm_SOAG0_surf_1850-2014_1.9x2.5_c20230201.nc',
         'NO       -> $DIN_LOC_ROOT/atm/cam/chem/trop_mozart_aero/emis/chem_gases/2degrees/emissions-cmip6_e3sm_NO_surface_1850-2014_1.9x2.5_c20220425.nc',    
         'DMS      -> $DIN_LOC_ROOT/atm/cam/chem/trop_mozart_aero/emis/DMSflux.1850-2100.1deg_latlon_conserv.POPmonthlyClimFromACES4BGC_c20160727.nc',
         'SO2      -> $DIN_LOC_ROOT/atm/cam/chem/trop_mozart_aero/emis/DECK_ne30/cmip6_mam4_so2_surf_1850-2014_c180205.nc',
         'bc_a4    -> $DIN_LOC_ROOT/atm/cam/chem/trop_mozart_aero/emis/DECK_ne30/cmip6_mam4_bc_a4_surf_1850-2014_c180205.nc',
         'num_a1   -> $DIN_LOC_ROOT/atm/cam/chem/trop_mozart_aero/emis/DECK_ne30/cmip6_mam4_num_a1_surf_1850-2014_c180205.nc',
         'num_a2   -> $DIN_LOC_ROOT/atm/cam/chem/trop_mozart_aero/emis/DECK_ne30/cmip6_mam4_num_a2_surf_1850-2014_c180205.nc',
         'num_a4   -> $DIN_LOC_ROOT/atm/cam/chem/trop_mozart_aero/emis/DECK_ne30/cmip6_mam4_num_a4_surf_1850-2014_c180205.nc',
         'pom_a4   -> $DIN_LOC_ROOT/atm/cam/chem/trop_mozart_aero/emis/DECK_ne30/cmip6_mam4_pom_a4_surf_1850-2014_c180205.nc',
         'so4_a1   -> $DIN_LOC_ROOT/atm/cam/chem/trop_mozart_aero/emis/DECK_ne30/cmip6_mam4_so4_a1_surf_1850-2014_c180205.nc',
         'so4_a2   -> $DIN_LOC_ROOT/atm/cam/chem/trop_mozart_aero/emis/DECK_ne30/cmip6_mam4_so4_a2_surf_1850-2014_c180205.nc',
         'E90      -> $DIN_LOC_ROOT/atm/cam/chem/trop_mozart_aero/emis/chem_gases/2degrees/emissions_E90_surface_1750-2015_1.9x2.5_c20210408.nc'
 srf_emis_type          = 'INTERP_MISSING_MONTHS'

! update species for using F20TR-chemUCI-Linozv3
! follow https://acme-climate.atlassian.net/wiki/spaces/NGDAP/pages/3566043211/20220914.PAN.MZThet.v2.LR.bi-grid.amip.chemUCI+Linozv3

 rad_climate            = 'A:H2OLNZ:H2O', 'N:O2:O2', 'N:CO2:CO2',
         'A:O3:O3', 'A:N2OLNZ:N2O', 'A:CH4LNZ:CH4',
         'N:CFC11:CFC11', 'N:CFC12:CFC12',
         'M:mam4_mode1:$DIN_LOC_ROOT/atm/cam/physprops/mam4_mode1_rrtmg_aeronetdust_c141106.nc',
         'M:mam4_mode2:$DIN_LOC_ROOT/atm/cam/physprops/mam4_mode2_rrtmg_c130628.nc',
         'M:mam4_mode3:$DIN_LOC_ROOT/atm/cam/physprops/mam4_mode3_rrtmg_aeronetdust_c141106.nc',
         'M:mam4_mode4:$DIN_LOC_ROOT/atm/cam/physprops/mam4_mode4_rrtmg_c130628.nc'

! sad_file is needed for F20TR-chemUCI-Linozv3, not needed only after enabling MAM5

 sad_file               = '$DIN_LOC_ROOT/atm/waccm/sulf/SAD_SULF_1849-2100_1.9x2.5_c090817.nc'

! default using
! sad_file               = '$DIN_LOC_ROOT/atm/waccm/sulf/SAD_SULF_1950-2011_1.9x2.5_c130102.nc'
