finidat_interp_source = '$DIN_LOC_ROOT/lnd/clm2/initdata_map/20180316.DECKv1b_A1.ne30_oEC.edison.clm2.r.1980-01-01-00000_DECKv1.nc'

