semi_lagrange_diagnostics = 1
semi_lagrange_trajectory_nsubstep = 2
semi_lagrange_trajectory_nvelocity = 3
