histfreq = 'x','x','x','x','x'
histfreq_n = 0,0,0,0,0