 use_vertsoilc   = .false.
 anoxia          = .true.
 hist_wrtch4diag = .true.
