! below is the surfdata of Alder Shrubland ecosystem, one of 6 ecosystems in B. Sulman et al. (2021)
fsurdat = '$DIN_LOC_ROOT/lnd/clm2/surfdata_map/surfdata_1x1pt_kougarok-NGEE_AS_simyr1850_c20201008-sub12.nc'

! below is user-pft physiology parameter file example, developed by B. Sulman et al. (2021)
! 12 arctic PFTs: not_vegetated, arctic_lichen, arctic_bryophyte,
!                 arctic_evergreen_shrub_dwarf, arctic_evergreen_shrub_tall,
!                 arctic_deciduous_shrub_dwarf, arctic_deciduous_shrub_low, arctic_deciduous_shrub_tall, arctic_decidous_shrub_alder,
!                 arctic_forb, arctic_dry_graminoid, arctic_wet_graminoid
 paramfile = '$DIN_LOC_ROOT/lnd/clm2/paramdata/clm_params_c180524-sub12_updated20240201.nc'

! when creating an I case, with ECA on, the following paramfile should be used:
! paramfile = '$DIN_LOC_ROOT/lnd/clm2/paramdata/clm_params.cbgc-sub12_updated20240201.nc'