fsurdat = '$DIN_LOC_ROOT/lnd/clm2/surfdata_map/surfdata_0.5x0.5_simyr2000_c190418.nc'
