inundflag = .true.
use_lnd_rof_two_way = .true.