 use_c13        = .true.
 use_c14        = .true.
