theta_hydrostatic_mode = .true.
se_fv_phys_remap_alg = 1
tstep_type = 5
theta_advect_form = 1
hypervis_subcycle_tom = 1
hypervis_subcycle = 1
transport_alg = 12
semi_lagrange_cdr_alg = 20
semi_lagrange_cdr_check = .true.
dt_remap_factor = 2
dt_tracer_factor = 6
se_tstep = 300
se_ftype = 4
se_limiter_option = 9
semi_lagrange_nearest_point_lev = 256
vert_remap_q_alg = 10
hypervis_subcycle_q = 6
semi_lagrange_hv_q = 1
