hist_mfilt        = 365
hist_nhtfrq       = -24
hist_empty_htapes = .false.
fates_spitfire_mode = 1
fates_history_dimlevel = 2,2
use_fates_tree_damage = .true.
hist_ndens = 1
hist_fincl1       = 'FATES_TLONGTERM',
'FATES_TGROWTH','FATES_SEEDS_IN_GRIDCELL_PF','FATES_SEEDS_OUT_GRIDCELL_PF','FATES_NCL_AP',
'FATES_NPATCH_AP','FATES_VEGC_AP','FATES_SECONDAREA_ANTHRODIST_AP','FATES_SECONDAREA_DIST_AP',
'FATES_FUEL_AMOUNT_APFC','FATES_STOREC_TF_USTORY_SZPF','FATES_STOREC_TF_CANOPY_SZPF',
'FATES_CROWNAREA_CLLL','FATES_ABOVEGROUND_MORT_SZPF',
'FATES_ABOVEGROUND_PROD_SZPF','FATES_NPLANT_SZAP','FATES_NPLANT_CANOPY_SZAP',
'FATES_NPLANT_USTORY_SZAP','FATES_DDBH_CANOPY_SZAP','FATES_DDBH_USTORY_SZAP',
'FATES_MORTALITY_CANOPY_SZAP','FATES_MORTALITY_USTORY_SZAP','FATES_NPLANT_SZAPPF',
'FATES_NPP_APPF','FATES_VEGC_APPF','FATES_SCORCH_HEIGHT_APPF','FATES_GPP_SZPF',
'FATES_GPP_CANOPY_SZPF','FATES_AUTORESP_CANOPY_SZPF','FATES_GPP_USTORY_SZPF',
'FATES_AUTORESP_USTORY_SZPF','FATES_NPP_SZPF','FATES_LEAF_ALLOC_SZPF',
'FATES_SEED_ALLOC_SZPF','FATES_FROOT_ALLOC_SZPF','FATES_BGSAPWOOD_ALLOC_SZPF',
'FATES_BGSTRUCT_ALLOC_SZPF','FATES_AGSAPWOOD_ALLOC_SZPF','FATES_AGSTRUCT_ALLOC_SZPF',
'FATES_STORE_ALLOC_SZPF','FATES_DDBH_SZPF','FATES_GROWTHFLUX_SZPF','FATES_GROWTHFLUX_FUSION_SZPF',
'FATES_DDBH_CANOPY_SZPF','FATES_DDBH_USTORY_SZPF','FATES_BASALAREA_SZPF','FATES_VEGC_ABOVEGROUND_SZPF',
'FATES_NPLANT_SZPF','FATES_NPLANT_ACPF','FATES_MORTALITY_BACKGROUND_SZPF','FATES_MORTALITY_HYDRAULIC_SZPF',
'FATES_MORTALITY_CSTARV_SZPF','FATES_MORTALITY_IMPACT_SZPF','FATES_MORTALITY_FIRE_SZPF',
'FATES_MORTALITY_CROWNSCORCH_SZPF','FATES_MORTALITY_CAMBIALBURN_SZPF','FATES_MORTALITY_TERMINATION_SZPF',
'FATES_MORTALITY_LOGGING_SZPF','FATES_MORTALITY_FREEZING_SZPF','FATES_MORTALITY_SENESCENCE_SZPF',
'FATES_MORTALITY_AGESCEN_SZPF','FATES_MORTALITY_AGESCEN_ACPF','FATES_MORTALITY_CANOPY_SZPF',
'FATES_M3_MORTALITY_CANOPY_SZPF','FATES_M3_MORTALITY_USTORY_SZPF','FATES_C13DISC_SZPF',
'FATES_STOREC_CANOPY_SZPF','FATES_LEAFC_CANOPY_SZPF','FATES_LAI_CANOPY_SZPF','FATES_CROWNAREA_CANOPY_SZPF',
'FATES_CROWNAREA_USTORY_SZPF','FATES_NPLANT_CANOPY_SZPF','FATES_MORTALITY_USTORY_SZPF','FATES_STOREC_USTORY_SZPF',
'FATES_LEAFC_USTORY_SZPF','FATES_LAI_USTORY_SZPF','FATES_NPLANT_USTORY_SZPF','FATES_CWD_ABOVEGROUND_DC',
'FATES_CWD_BELOWGROUND_DC','FATES_CWD_ABOVEGROUND_IN_DC','FATES_CWD_BELOWGROUND_IN_DC',
'FATES_CWD_ABOVEGROUND_OUT_DC','FATES_CWD_BELOWGROUND_OUT_DC','FATES_YESTCANLEV_CANOPY_SZ',
'FATES_YESTCANLEV_USTORY_SZ','FATES_VEGC_SZ','FATES_DEMOTION_RATE_SZ','FATES_PROMOTION_RATE_SZ',
'FATES_SAI_CANOPY_SZ','FATES_M3_MORTALITY_CANOPY_SZ','FATES_M3_MORTALITY_USTORY_SZ','FATES_SAI_USTORY_SZ',
'FATES_NPP_CANOPY_SZ','FATES_NPP_USTORY_SZ','FATES_TRIMMING_CANOPY_SZ','FATES_TRIMMING_USTORY_SZ',
'FATES_CROWNAREA_CANOPY_SZ','FATES_CROWNAREA_USTORY_SZ','FATES_LEAFCTURN_CANOPY_SZ','FATES_FROOTCTURN_CANOPY_SZ',
'FATES_STORECTURN_CANOPY_SZ','FATES_STRUCTCTURN_CANOPY_SZ','FATES_SAPWOODCTURN_CANOPY_SZ','FATES_SEED_PROD_CANOPY_SZ',
'FATES_LEAF_ALLOC_CANOPY_SZ','FATES_FROOT_ALLOC_CANOPY_SZ','FATES_SAPWOOD_ALLOC_CANOPY_SZ','FATES_STRUCT_ALLOC_CANOPY_SZ',
'FATES_SEED_ALLOC_CANOPY_SZ','FATES_STORE_ALLOC_CANOPY_SZ','FATES_LEAFCTURN_USTORY_SZ','FATES_FROOTCTURN_USTORY_SZ',
'FATES_STORECTURN_USTORY_SZ','FATES_STRUCTCTURN_USTORY_SZ','FATES_SAPWOODCTURN_USTORY_SZ',
'FATES_SEED_PROD_USTORY_SZ','FATES_LEAF_ALLOC_USTORY_SZ','FATES_FROOT_ALLOC_USTORY_SZ','FATES_SAPWOOD_ALLOC_USTORY_SZ',
'FATES_STRUCT_ALLOC_USTORY_SZ','FATES_SEED_ALLOC_USTORY_SZ','FATES_STORE_ALLOC_USTORY_SZ','FATES_CROWNAREA_CANOPY_CD',
'FATES_CROWNAREA_USTORY_CD','FATES_NPLANT_CDPF','FATES_NPLANT_CANOPY_CDPF','FATES_NPLANT_USTORY_CDPF',
'FATES_M3_CDPF','FATES_M11_SZPF','FATES_M11_CDPF','FATES_MORTALITY_CDPF','FATES_M3_MORTALITY_CANOPY_CDPF',
'FATES_M3_MORTALITY_USTORY_CDPF','FATES_M11_MORTALITY_CANOPY_CDPF','FATES_M11_MORTALITY_USTORY_CDPF',
'FATES_MORTALITY_CANOPY_CDPF','FATES_MORTALITY_USTORY_CDPF','FATES_DDBH_CDPF','FATES_DDBH_CANOPY_CDPF',
'FATES_DDBH_USTORY_CDPF','FATES_VEGC_SZPF','FATES_LEAFC_SZPF','FATES_FROOTC_SZPF','FATES_SAPWOODC_SZPF',
'FATES_STOREC_SZPF','FATES_REPROC_SZPF','FATES_NPP_AP','FATES_GPP_AP','FATES_RDARK_USTORY_SZ',
'FATES_LSTEMMAINTAR_USTORY_SZ','FATES_CROOTMAINTAR_USTORY_SZ','FATES_FROOTMAINTAR_USTORY_SZ','FATES_GROWAR_USTORY_SZ',
'FATES_MAINTAR_USTORY_SZ','FATES_RDARK_CANOPY_SZ','FATES_CROOTMAINTAR_CANOPY_SZ','FATES_FROOTMAINTAR_CANOPY_SZ',
'FATES_GROWAR_CANOPY_SZ','FATES_MAINTAR_CANOPY_SZ','FATES_LSTEMMAINTAR_CANOPY_SZ','FATES_AUTORESP_SZPF',
'FATES_GROWAR_SZPF','FATES_MAINTAR_SZPF','FATES_RDARK_SZPF','FATES_AGSAPMAINTAR_SZPF','FATES_BGSAPMAINTAR_SZPF',
'FATES_FROOTMAINTAR_SZPF','FATES_PARSUN_CLLL','FATES_PARSHA_CLLL','FATES_PARSUN_CLLLPF','FATES_PARSHA_CLLLPF',
'FATES_PARSUN_CL','FATES_PARSHA_CL','FATES_LAISUN_CLLL','FATES_LAISHA_CLLL','FATES_LAISUN_CLLLPF',
'FATES_LAISHA_CLLLPF','FATES_PARPROF_DIR_CLLLPF','FATES_PARPROF_DIF_CLLLPF','FATES_LAISUN_CL','FATES_LAISHA_CL',
'FATES_PARPROF_DIR_CLLL','FATES_PARPROF_DIF_CLLL','FATES_NET_C_UPTAKE_CLLL','FATES_CROWNFRAC_CLLLPF',
'FATES_LBLAYER_COND_AP','FATES_STOMATAL_COND_AP'
