hist_mfilt        = 365
hist_nhtfrq       = -24
hist_empty_htapes = .false.
fates_spitfire_mode = 1
hist_fincl1       = 'FATES_CROWNAREA_PF', 'FATES_CANOPYCROWNAREA_PF',
'FATES_NCL_AP', 'FATES_NPATCH_AP', 'FATES_VEGC_AP',
'FATES_SECONDARY_FOREST_FRACTION', 'FATES_WOOD_PRODUCT',
'FATES_SECONDARY_FOREST_VEGC', 'FATES_SECONDAREA_ANTHRODIST_AP',
'FATES_SECONDAREA_DIST_AP', 'FATES_STOMATAL_COND_AP', 'FATES_LBLAYER_COND_AP',
'FATES_NPP_AP', 'FATES_GPP_AP', 'FATES_PARSUN_Z_CLLL', 'FATES_PARSHA_Z_CLLL',
'FATES_PARSUN_Z_CLLLPF', 'FATES_PARSHA_Z_CLLLPF', 'FATES_PARSUN_Z_CL',
'FATES_PARSHA_Z_CL', 'FATES_LAISUN_Z_CLLL', 'FATES_LAISHA_Z_CLLL',
'FATES_LAISUN_Z_CLLLPF', 'FATES_LAISHA_Z_CLLLPF', 'FATES_LAISUN_TOP_CL',
'FATES_LAISHA_TOP_CL', 'FATES_FABD_SUN_CLLLPF', 'FATES_FABD_SHA_CLLLPF',
'FATES_FABI_SUN_CLLLPF', 'FATES_FABI_SHA_CLLLPF', 'FATES_FABD_SUN_CLLL',
'FATES_FABD_SHA_CLLL', 'FATES_FABI_SUN_CLLL', 'FATES_FABI_SHA_CLLL',
'FATES_PARPROF_DIR_CLLLPF', 'FATES_PARPROF_DIF_CLLLPF',
'FATES_PARPROF_DIR_CLLL', 'FATES_PARPROF_DIF_CLLL', 'FATES_FABD_SUN_TOPLF_CL',
'FATES_FABD_SHA_TOPLF_CL', 'FATES_FABI_SUN_TOPLF_CL', 'FATES_FABI_SHA_TOPLF_CL',
'FATES_NET_C_UPTAKE_CLLL', 'FATES_CROWNAREA_CLLL', 'FATES_NPLANT_CANOPY_SZAP',
'FATES_NPLANT_USTORY_SZAP', 'FATES_DDBH_CANOPY_SZAP', 'FATES_DDBH_USTORY_SZAP',
'FATES_MORTALITY_CANOPY_SZAP', 'FATES_MORTALITY_USTORY_SZAP',
'FATES_NPLANT_SZAPPF', 'FATES_NPP_APPF', 'FATES_VEGC_APPF', 'FATES_GPP_SZPF',
'FATES_GPP_CANOPY_SZPF', 'FATES_AUTORESP_CANOPY_SZPF', 'FATES_GPP_USTORY_SZPF',
'FATES_AUTORESP_USTORY_SZPF', 'FATES_NPP_SZPF', 'FATES_LEAF_ALLOC_SZPF',
'FATES_SEED_ALLOC_SZPF', 'FATES_FROOT_ALLOC_SZPF', 'FATES_BGSAPWOOD_ALLOC_SZPF',
'FATES_BGSTRUCT_ALLOC_SZPF', 'FATES_AGSAPWOOD_ALLOC_SZPF',
'FATES_AGSTRUCT_ALLOC_SZPF', 'FATES_STORE_ALLOC_SZPF', 'FATES_DDBH_SZPF',
'FATES_GROWTHFLUX_SZPF', 'FATES_GROWTHFLUX_FUSION_SZPF',
'FATES_DDBH_CANOPY_SZPF', 'FATES_DDBH_USTORY_SZPF', 'FATES_BASALAREA_SZPF',
'FATES_VEGC_ABOVEGROUND_SZPF', 'FATES_NPLANT_SZPF', 'FATES_NPLANT_ACPF',
'FATES_MORTALITY_BACKGROUND_SZPF', 'FATES_MORTALITY_HYDRAULIC_SZPF',
'FATES_MORTALITY_CSTARV_SZPF', 'FATES_MORTALITY_IMPACT_SZPF',
'FATES_MORTALITY_FIRE_SZPF', 'FATES_MORTALITY_CROWNSCORCH_SZPF',
'FATES_MORTALITY_CAMBIALBURN_SZPF', 'FATES_MORTALITY_TERMINATION_SZPF',
'FATES_MORTALITY_LOGGING_SZPF', 'FATES_MORTALITY_FREEZING_SZPF',
'FATES_MORTALITY_SENESCENCE_SZPF', 'FATES_MORTALITY_AGESCEN_SZPF',
'FATES_MORTALITY_AGESCEN_ACPF', 'FATES_MORTALITY_CANOPY_SZPF',
'FATES_STOREC_CANOPY_SZPF', 'FATES_LEAFC_CANOPY_SZPF',
'FATES_NPLANT_CANOPY_SZPF', 'FATES_MORTALITY_USTORY_SZPF',
'FATES_STOREC_USTORY_SZPF', 'FATES_LEAFC_USTORY_SZPF',
'FATES_NPLANT_USTORY_SZPF', 'FATES_CWD_ABOVEGROUND_DC',
'FATES_CWD_BELOWGROUND_DC', 'FATES_CWD_ABOVEGROUND_IN_DC',
'FATES_CWD_BELOWGROUND_IN_DC', 'FATES_CWD_ABOVEGROUND_OUT_DC',
'FATES_CWD_BELOWGROUND_OUT_DC', 'FATES_AUTORESP_SZPF', 'FATES_GROWAR_SZPF',
'FATES_MAINTAR_SZPF', 'FATES_RDARK_SZPF', 'FATES_AGSAPMAINTAR_SZPF',
'FATES_BGSAPMAINTAR_SZPF', 'FATES_FROOTMAINTAR_SZPF',
'FATES_YESTCANLEV_CANOPY_SZ', 'FATES_YESTCANLEV_USTORY_SZ',
'FATES_VEGC_SZ', 'FATES_DEMOTION_RATE_SZ', 'FATES_PROMOTION_RATE_SZ',
'FATES_SAI_CANOPY_SZ', 'FATES_SAI_USTORY_SZ', 'FATES_NPP_CANOPY_SZ',
'FATES_NPP_USTORY_SZ', 'FATES_TRIMMING_CANOPY_SZ', 'FATES_TRIMMING_USTORY_SZ',
'FATES_CROWNAREA_CANOPY_SZ', 'FATES_CROWNAREA_USTORY_SZ',
'FATES_LEAFCTURN_CANOPY_SZ', 'FATES_FROOTCTURN_CANOPY_SZ',
'FATES_STORECTURN_CANOPY_SZ', 'FATES_STRUCTCTURN_CANOPY_SZ',
'FATES_SAPWOODCTURN_CANOPY_SZ', 'FATES_SEED_PROD_CANOPY_SZ',
'FATES_LEAF_ALLOC_CANOPY_SZ', 'FATES_FROOT_ALLOC_CANOPY_SZ',
'FATES_SAPWOOD_ALLOC_CANOPY_SZ', 'FATES_STRUCT_ALLOC_CANOPY_SZ',
'FATES_SEED_ALLOC_CANOPY_SZ', 'FATES_STORE_ALLOC_CANOPY_SZ',
'FATES_RDARK_CANOPY_SZ', 'FATES_LSTEMMAINTAR_CANOPY_SZ',
'FATES_CROOTMAINTAR_CANOPY_SZ', 'FATES_FROOTMAINTAR_CANOPY_SZ',
'FATES_GROWAR_CANOPY_SZ', 'FATES_MAINTAR_CANOPY_SZ',
'FATES_LEAFCTURN_USTORY_SZ', 'FATES_FROOTCTURN_USTORY_SZ',
'FATES_STORECTURN_USTORY_SZ', 'FATES_STRUCTCTURN_USTORY_SZ',
'FATES_SAPWOODCTURN_USTORY_SZ', 'FATES_SEED_PROD_USTORY_SZ',
'FATES_LEAF_ALLOC_USTORY_SZ', 'FATES_FROOT_ALLOC_USTORY_SZ',
'FATES_SAPWOOD_ALLOC_USTORY_SZ', 'FATES_STRUCT_ALLOC_USTORY_SZ',
'FATES_SEED_ALLOC_USTORY_SZ', 'FATES_STORE_ALLOC_USTORY_SZ',
'FATES_RDARK_USTORY_SZ', 'FATES_LSTEMMAINTAR_USTORY_SZ',
'FATES_CROOTMAINTAR_USTORY_SZ', 'FATES_FROOTMAINTAR_USTORY_SZ',
'FATES_GROWAR_USTORY_SZ', 'FATES_MAINTAR_USTORY_SZ', 'FATES_VEGC_SZPF',
'FATES_LEAFC_SZPF', 'FATES_FROOTC_SZPF', 'FATES_SAPWOODC_SZPF',
'FATES_STOREC_SZPF', 'FATES_REPROC_SZPF', 'FATES_DROUGHT_STATUS_PF',
'FATES_DAYSINCE_DROUGHTLEAFOFF_PF', 'FATES_DAYSINCE_DROUGHTLEAFON_PF',
'FATES_MEANLIQVOL_DROUGHTPHEN_PF', 'FATES_MEANSMP_DROUGHTPHEN_PF',
'FATES_ELONG_FACTOR_PF'
