! user_nl_clm namelist options written by PTCLMmkdata:
! ../PTCLMmkdata --verbose --pftgrid --cesm_root ../../../../../../.. -s CA-Obs -d /glade/p/cesmdata/cseg/inputdata --debug --sdate 140204 --map_gdate 140204 --mydatadir testing_dir/pftgrid_file_creation 
 fsurdat = '/glade/p/work/erik/clm_trunk/models/lnd/clm/tools/shared/PTCLM/test/testing_dir/pftgrid_file_creation/1x1pt_CA-Obs/surfdata_1x1pt_CA-Obs_simyr2000_clm4_5_pftgrd_c140204.nc'
 hist_nhtfrq = 0
 hist_mfilt  = 1200
