abio_atm_co2_d14c_opt = 'file'
abio_dic_dic14_data_year = 1960
