&co2_cycle_nl
 co2_flag = .true.
 co2_readFlux_fuel = .false.
 co2_readFlux_aircraft = .false.
 co2_readFlux_ocn = .true.
 co2flux_ocn_file = '$DIN_LOC_ROOT/ocn/CMIP6_SSP245_ne30/fgco2_CESM2_SSP245_ne30pg2_2015-2100.nc'
&chem_surfvals_nl
 co2vmr = 0.000001e-6
 scenario_ghg = 'RAMPED'
 bndtvghg = '$DIN_LOC_ROOT/atm/cam/ggas/GHG_GCAM_SSP245_Annual_Global_2015-2102_c20240712.nc'
 co2_conserv_error_tol_per_year = 1.e-5
