! user_nl_clm namelist options written by PTCLMmkdata:
! ../PTCLMmkdata --quiet --cesm_root ../../../../../../.. -s US-Bo1 -d /glade/p/cesmdata/cseg/inputdata --debug --sdate 140204 --map_gdate 140204 --mydatadir testing_dir/stdquiet_file_creation 
 fsurdat = '/glade/p/work/erik/clm_trunk/models/lnd/clm/tools/shared/PTCLM/test/testing_dir/stdquiet_file_creation/1x1pt_US-Bo1/surfdata_1x1pt_US-Bo1_simyr2000_clm4_5_c140204.nc'
 hist_nhtfrq = 0
 hist_mfilt  = 1200
