& tavg_nml
    ltavg_ignore_extra_streams = .true.
    n_tavg_streams = 1
    tavg_freq_opt = 'nhour'
    tavg_freq = 3
    tavg_file_freq_opt = 'nhour'
    tavg_file_freq = 3
/
