 finidat = '$DIN_LOC_ROOT/lnd/clm2/initdata_map/clmi.WCYCL1850-4xCO2.ne30pg2_EC30to60E2r2.SMS_Ld1.c20230213.nc'
 hist_dov2xy = .true.,.true.
 hist_fincl2 = 'H2OSNO', 'FSNO', 'QRUNOFF', 'QSNOMELT', 'FSNO_EFF', 'SNORDSL', 'SNOW', 'FSDS', 'FSR', 'FLDS', 'FIRE', 'FIRA'
 hist_mfilt = 1,365
 hist_nhtfrq = -24,-24
 hist_avgflag_pertape = 'A','A'
