mfilt=1,1,1,1,1,1
ndens=1,1,1,1,1,1
nhtfrq=9,9,9,9,9,9
inithist='ENDOFRUN'
sathist_track_infile='$CSMDATA/atm/cam/sat/satellite_profilelist_20020125_20101030_c110204_noleap.nc'
sathist_fincl = 'Q','T','PS','U','V','FV','UW3d','TKE'
fincl3 = 'Q','T','PS','FV','UW3d','TKE'
fincl4 = 'Q','T','PS','FV','UW3d','TKE'
lcltod_start = 0,0, 7200,82800
lcltod_stop  = 0,0,10800,7200
avgflag_pertape = 'I',' ','L','L'
do_circulation_diags=.true.
