nlmaps_verbosity = 1
nlmaps_atm2srf_conserve = .true.
