! user_nl_clm namelist options written by PTCLMmkdata:
! ../PTCLMmkdata --verbose --cycle_forcing --cesm_root ../../../../../../.. -s TS-Ts1 -d /glade/p/cesmdata/cseg/inputdata --debug --mydatadir testing_dir/cycling__file_creation 
 fsurdat = '/glade/p/work/erik/clm_transCO2/models/lnd/clm/tools/shared/PTCLM/test/testing_dir/cycling__file_creation/1x1pt_TS-Ts1/surfdata_1x1pt_TS-Ts1_simyr2000_clm4_5_c140204.nc'
 hist_nhtfrq = 0
 hist_mfilt  = 1200
